/batch
/config,noeldb,1     ! force off writing results to database
*get,_wallstrt,active,,time,wall
! ANSYS input file written by Workbench version 2022 R1
! File used for geometry attach: D:\\2.11\\RuoYi-Cloud-master\\ansys_worker\\output\\task_31\\demo_simulation_model\\input_geometry.step
/title,wbnew--____
! ****** Begin Custom Load Command Snippet ******
/COM, ACT Extensions:
/COM,     LSDYNA, 2021.1
/COM,     5f463412-bd3e-484b-87e7-cbc0a665e474, wbex
/COM,
! ****** End   Custom Load Command Snippet ******
*DIM,_wb_ProjectScratch_dir,string,248
_wb_ProjectScratch_dir(1) = 'C:\Users\666\AppData\Local\Temp\WB_666_48460_2\_ProjectScratch\ScrFAD5\'
*DIM,_wb_SolverFiles_dir,string,248
_wb_SolverFiles_dir(1) = 'C:\Users\666\AppData\Local\Temp\WB_666_48460_2\wbnew_files\dp0\SYS\MECH\'
*DIM,_wb_userfiles_dir,string,248
_wb_userfiles_dir(1) = 'C:\Users\666\AppData\Local\Temp\WB_666_48460_2\wbnew_files\user_files\'
/com,--- Data in consistent MKS units. See Solving Units in the help system for more information.
/units,MKS
/nopr
/wb,file,start              !  signify a WB generated input file
/prep7
! Turn off shape checking because checks already performed inside WB mesher.
! See help system for more information.
SHPP,OFF,,NOWARN
/nolist
etcon,set             ! allow ANSYS to choose best KEYOP's for 180x elements, resets any applicable keyopt to MAPDL defaults
/com,*********** Nodes for the whole assembly ***********
nblock,3,,31977
(1i9,3e20.9e3)
        1     6.014030969E-01    -2.966500591E-01     1.321907854E-03
        2     6.011438151E-01    -2.972691032E-01     2.484374111E-03
        3     6.007465723E-01    -2.982175337E-01     3.347188186E-03
        4     6.002592818E-01    -2.993809559E-01     3.806281965E-03
        5     5.997407182E-01    -3.006190440E-01     3.806281965E-03
        6     5.992534277E-01    -3.017824663E-01     3.347188186E-03
        7     5.988561849E-01    -3.027308968E-01     2.484374111E-03
        8     5.985969031E-01    -3.033499409E-01     1.321907854E-03
        9     6.017298206E-01    -2.958699953E-01    -1.629725983E-03
       10     6.014101627E-01    -2.966331893E-01    -3.062882960E-03
       11     6.009204183E-01    -2.978024704E-01    -4.126611049E-03
       12     6.003196579E-01    -2.992368060E-01    -4.692608943E-03
       13     5.996803421E-01    -3.007631940E-01    -4.692608943E-03
       14     5.990795817E-01    -3.021975296E-01    -4.126611049E-03
       15     5.985898373E-01    -3.033668107E-01    -3.062882960E-03
       16     5.982701794E-01    -3.041300047E-01    -1.629725983E-03
       17     5.981591634E-01    -3.043950592E-01     5.835441998E-19
       18     5.982701794E-01    -3.041300047E-01     1.629725983E-03
       19     5.985898373E-01    -3.033668107E-01     3.062882960E-03
       20     5.990795817E-01    -3.021975296E-01     4.126611049E-03
! ... 29051 like lines cut
/wb,elem,start            !  set before creation of elements
/com,*********** Elements for Body 1 "input_geometry-FreeParts|PipeInnerBoreCut" ***********
et,1,186
keyo,1,2,1          ! set full integration on SOLID186
eblock,19,solid,,4140
(19i9)
        1        1        1        1        0        0        0        0       20        0        1     2493     2494     8070     8069     2677     2679     8083     8084
    15999    16007    28622    16003    16583    16588    28643    16584    16001    16006    28625    28623
        1        1        1        1        0        0        0        0       20        0        2     2493     8069     8070     2494     2501     8061     8062     2502
    16003    28622    16007    15999    16035    28607    16038    16032    16000    28608    28610    16005
        1        1        1        1        0        0        0        0       20        0        3     2501     8061     8062     2502     2509     8053     8054     2510
    16035    28607    16038    16032    16060    28592    16063    16057    16033    28593    28595    16037
        1        1        1        1        0        0        0        0       20        0        4     2509     8053     8054     2510     2517     8045     8046     2518
    16060    28592    16063    16057    16085    28577    16088    16082    16058    28578    28580    16062
        1        1        1        1        0        0        0        0       20        0        5     2517     8045     8046     2518     2525     8037     8038     2526
    16085    28577    16088    16082    16110    28562    16113    16107    16083    28563    28565    16087
        1        1        1        1        0        0        0        0       20        0        6     2525     8037     8038     2526     2533     8029     8030     2534
    16110    28562    16113    16107    16135    28547    16138    16132    16108    28548    28550    16112
        1        1        1        1        0        0        0        0       20        0        7     2533     8029     8030     2534     2541     8021     8022     2542
    16135    28547    16138    16132    16160    28532    16163    16157    16133    28533    28535    16137
        1        1        1        1        0        0        0        0       20        0        8     2541     8021     8022     2542     2549     8013     8014     2550
    16160    28532    16163    16157    16185    28517    16188    16182    16158    28518    28520    16162
        1        1        1        1        0        0        0        0       20        0        9     2549     8013     8014     2550     2557     8005     8006     2558
    16185    28517    16188    16182    16210    28502    16213    16207    16183    28503    28505    16187
        1        1        1        1        0        0        0        0       20        0       10     2557     8005     8006     2558     2565     7997     7998     2566
    16210    28502    16213    16207    16235    28487    16238    16232    16208    28488    28490    16212
! ... 8261 like lines cut
!Material Id = {47F4B6EE-E790-4ADF-BC77-0AAAE5368ABA}
/wb,elem,end               !  done creating elements
/com,*********** Send User Defined Coordinate System(s) ***********
csys,0
toffst,273.15,  ! Temperature offset from absolute zero
/com,*********** Set Reference Temperature ***********
tref,22.
/wb,mat,start              !  starting to send materials
/com,*********** Send Materials ***********
Temperature = 'TEMP' ! Temperature
MP,DENS,1,7850,	! kg m^-3
MP,ALPX,1,1.2e-05,	! C^-1
MP,C,1,434,	! J kg^-1 C^-1
MP,KXX,1,60.5,	! W m^-1 C^-1
MP,RSVX,1,1.7e-07,	! kg m^3 A^-2 s^-3
MP,EX,1,200000000000,	! Pa
MP,NUXY,1,0.3,
MP,MURX,1,10000,
MP,UVID,1,e13dd087-25f8-4091-8fce-afcf78a1fa2d
MP,UMID,1,59002a79-71c2-428e-906b-55d7dbee100e

/wb,mat,end                !  done sending materials
!************************* Model Summary ********************
!input_geometry-FreeParts|PipeInnerBoreCut,	½á¹¹¸Ö,	matid,	1
!************************* End Model Summary ********************
! get the diagonal of the bounding box. Needed later for other things
*get,_xmin,node,,mnloc,x
*get,_ymin,node,,mnloc,y
*get,_zmin,node,,mnloc,z
*get,_xmax,node,,mxloc,x
*get,_ymax,node,,mxloc,y
*get,_zmax,node,,mxloc,z
_ASMDIAG=(_xmax-_xmin)*(_xmax-_xmin)+(_ymax-_ymin)*(_ymax-_ymin)+(_zmax-_zmin)*(_zmax-_zmin)
_ASMDIAG=SQRT(_ASMDIAG)
/wb,contact,start          !  starting to send contact
/wb,contact,end            !  done creating contacts
/golist
/wb,load,start             !  starting to send loads
/com,*********** Fixed Supports ***********
CMBLOCK,_FIXEDSU,NODE,      180
(8i10)
         1         2         3         4         5         6         7         8
         9        10        11        12        13        14        15        16
        17        18        19        20        21        22        23        24
        25        26        27        28        29        30        31        32
        33        34        35        36       501       502       503       504
       505       506       507       508       509       510      2677      2678
      2679      2680      2681      2682      2683      2684      2685      2686
      4893      4894      4895      4896      4897      4898      4899      4900
      8077      8078      8079      8080      8081      8082      8083      8084
      8317      8318      8319      8321      8322      8324      8325      8327
      8328      8330      8331      8333      8334      8336      8337      8339
      8340      8342      8343      8344      8346      8347      8349      8350
      8352      8353      8355      8356      8358      8359      8361      8362
      8364      8365      8367      8368      8370      8372      8374      8376
      8378      8380      8382      8384      8385      8388      8390      8392
      8394      8396      8398      8400      8402      8404      9870      9871
      9872      9874      9875      9876      9877      9878      9879      9880
      9881      9882      9883      9884      9885      9886      9887      9888
      9889      9891      9892     16582     16583     16584     16586     16587
     16588     16589     16590     16591     16592     16593     16594     16595
     16596     16597     16598     16599     16600     16602     22691     22692
     22693     22694     22695     22696     22697     28637     28638     28639
     28640     28641     28642     28643
cmsel,s,_FIXEDSU
d,all,all
nsel,all
/com,*********** Define Pressure Using Surface Effect Elements "__" ***********
et,2,154
eblock,10,,,4140
(15i9)
    12457        2        2        2        0      556     7893       98       85    10028     8610     8568     8570
    12458        2        2        2        0      555     7901     7893      556    10026    28293    10028    10024
    12459        2        2        2        0      554     7909     7901      555    10023    28308    10026    10021
    12460        2        2        2        0      553     7917     7909      554    10020    28323    10023    10018
    12461        2        2        2        0      552     7925     7917      553    10017    28338    10020    10015
    12462        2        2        2        0      551     7933     7925      552    10014    28353    10017    10012
    12463        2        2        2        0      550     7941     7933      551    10011    28368    10014    10009
    12464        2        2        2        0      549     7949     7941      550    10008    28383    10011    10006
    12465        2        2        2        0      548     7957     7949      549    10005    28398    10008    10003
    12466        2        2        2        0      547     7965     7957      548    10002    28413    10005    10000
    12467        2        2        2        0      546     7973     7965      547     9999    28428    10002     9997
    12468        2        2        2        0      545     7981     7973      546     9996    28443     9999     9994
    12469        2        2        2        0      544     7989     7981      545     9993    28458     9996     9991
    12470        2        2        2        0      543     7997     7989      544     9990    28473     9993     9988
    12471        2        2        2        0      542     8005     7997      543     9987    28488     9990     9985
    12472        2        2        2        0      541     8013     8005      542     9984    28503     9987     9982
    12473        2        2        2        0      540     8021     8013      541     9981    28518     9984     9979
    12474        2        2        2        0      539     8029     8021      540     9978    28533     9981     9976
    12475        2        2        2        0      538     8037     8029      539     9975    28548     9978     9973
    12476        2        2        2        0      537     8045     8037      538     9972    28563     9975     9970
! ... 4121 like lines cut
esel,s,type,,2
keyop,2,7,0                ! Use deformed area for application of load
esel,all
esel,all
/gst,on,on
fini
*get,_numnode,node,0,count
*get,_numelem,elem,0,count
*get, _MAXELEMNUM, elem, 0, NUM, MAX
*get, _MAXNODENUM, node, 0, NUM, MAX
*get, _MAXELEMTYPE, etyp, 0, NUM, MAX
*get, _MAXREALCONST, real, 0, NUM, MAX
/go
/wb,load,end               !  done creating loads
/com,--- Number of total nodes = %_numnode%
/com,--- Number of contact elements = 4140
/com,--- Number of spring elements = 0
/com,--- Number of bearing elements = 0
/com,--- Number of solid elements = 4140
/com,--- Number of condensed parts = 0
/com,--- Number of total elements = %_numelem%
*get,_wallbsol,active,,time,wall
/com,****************************************************************************
/com,*************************    SOLUTION       ********************************
/com,****************************************************************************
/solu
antype,0                   ! static analysis
_thickRatio=  0     ! Ratio of thick parts in the model
eqsl,sparse,,,,,1
cntr,print,1               ! print out contact info and also make no initial contact an error
dmpoption,emat,no             ! Don't combine emat file for DANSYS
dmpoption,esav,no             ! Don't combine esav file for DANSYS
nldiag,cont,iter           ! print out contact info each equilibrium iteration
rescontrol,,none                 ! Do not keep any restart files
/com,****************************************************
/com,******************* SOLVE FOR LS 1 OF 1 ****************
esel,s,type,,2
nsle
sf,all,pres,30000000.
nsel,all
esel,all
esel,all
/nopr
/gopr
nsub,1,1,1
time,1.
outres,erase
outres,all,none
outres,nsol,all,
outres,rsol,all
outres,eangl,all
outres,etmp,all
outres,veng,all
outres,strs,all,
outres,epel,all,
outres,eppl,all,
outres,cont,all,
! *********** WB SOLVE COMMAND ***********
! check interactive state
*get,ANSINTER_,active,,int
*if,ANSINTER_,ne,0,then
/eof
*endif
solve
/com *************** Write FE CONNECTORS ********* 
CEWRITE,file,ce,,INTE
/com,****************************************************
/com,*************** FINISHED SOLVE FOR LS 1 *************
*get,_wallasol,active,,time,wall
/nopr
*get,_numnode,node,0,count
*get,_numelem,elem,0,count
*get, _MAXELEMNUM, elem, 0, NUM, MAX
*get, _MAXNODENUM, node, 0, NUM, MAX,,,INTERNAL
*get, _MAXELEMTYPE, etyp, 0, NUM, MAX
*get, _MAXREALCONST, real, 0, NUM, MAX
/gopr
/post1
xmlo,ENCODING,ISO-8859-1
xmlo,parm
/xml,parm,xml
fini
/gopr
*get,_walldone,active,,time,wall
_preptime=(_wallbsol-_wallstrt)*3600
_solvtime=(_wallasol-_wallbsol)*3600
_posttime=(_walldone-_wallasol)*3600
_totaltim=(_walldone-_wallstrt)*3600
*get,_dlbratio,active,0,solu,dlbr
*get,_combtime,active,0,solu,comb
*get,_ssmode,active,0,solu,ssmm
*get,_ndofs,active,0,solu,ndof
*get,_sol_end_time,active,0,set,time
*if,_sol_end_time,eq,1.000000,then
/fclean				!clean distributed files
*endif
/com,--- Total number of nodes = %_numnode%
/com,--- Total number of elements = %_numelem%
/com,--- Element load balance ratio = %_dlbratio%
/com,--- Time to combine distributed files = %_combtime%
/com,--- Sparse memory mode = %_ssmode%
/com,--- Number of DOF = %_ndofs%
/wb,file,end               ! done with WB generated input
