/batch
/config,noeldb,1     ! force off writing results to database
*get,_wallstrt,active,,time,wall
! ANSYS input file written by Workbench version 2022 R1
! File used for geometry attach: D:\\2.11\\RuoYi-Cloud-master\\ansys_worker\\output\\task_32\\demo_simulation_model\\input_geometry.step
/title,wbnew--____
! ****** Begin Custom Load Command Snippet ******
/COM, ACT Extensions:
/COM,     LSDYNA, 2021.1
/COM,     5f463412-bd3e-484b-87e7-cbc0a665e474, wbex
/COM,
! ****** End   Custom Load Command Snippet ******
*DIM,_wb_ProjectScratch_dir,string,248
_wb_ProjectScratch_dir(1) = 'C:\Users\666\AppData\Local\Temp\WB_666_86820_2\_ProjectScratch\Scr1FE0\'
*DIM,_wb_SolverFiles_dir,string,248
_wb_SolverFiles_dir(1) = 'C:\Users\666\AppData\Local\Temp\WB_666_86820_2\wbnew_files\dp0\SYS\MECH\'
*DIM,_wb_userfiles_dir,string,248
_wb_userfiles_dir(1) = 'C:\Users\666\AppData\Local\Temp\WB_666_86820_2\wbnew_files\user_files\'
/com,--- Data in consistent MKS units. See Solving Units in the help system for more information.
/units,MKS
/nopr
/wb,file,start              !  signify a WB generated input file
/prep7
! Turn off shape checking because checks already performed inside WB mesher.
! See help system for more information.
SHPP,OFF,,NOWARN
/nolist
etcon,set             ! allow ANSYS to choose best KEYOP's for 180x elements, resets any applicable keyopt to MAPDL defaults
/com,*********** Nodes for the whole assembly ***********
nblock,3,,25011
(1i9,3e20.9e3)
        1     5.342674735E-02    -2.063160656E-02     4.801985657E-25
        2     5.194836264E-02    -2.389633968E-02     3.850090275E-03
        3     5.299745756E-02    -2.157961190E-02     2.621423518E-03
        4     6.389678996E-02    -3.084899997E-02     0.000000000E+00
        5     5.579796731E-02    -2.237028251E-02     0.000000000E+00
        6     5.804129971E-02    -2.427110810E-02     0.000000000E+00
        7     6.014567855E-02    -2.632470686E-02     0.000000000E+00
        8     6.210072328E-02    -2.852094872E-02     0.000000000E+00
        9     5.761445404E-02    -3.535290443E-02     4.733259879E-19
       10     5.821436374E-02    -3.492281982E-02     2.271790000E-03
       11     5.978494772E-02    -3.379684371E-02     3.675833435E-03
       12     6.167778533E-02    -3.243983895E-02     3.694694717E-03
       13     6.329688026E-02    -3.127908458E-02     2.271790000E-03
       14     4.395327547E-02    -2.414638331E-02     4.733259879E-19
       15     4.660983256E-02    -2.549195614E-02     4.733259879E-19
       16     4.913900625E-02    -2.706394287E-02     4.733259879E-19
       17     5.152154801E-02    -2.885037972E-02     4.733259879E-19
       18     5.373932523E-02    -3.083767085E-02     4.733259879E-19
       19     5.577545932E-02    -3.301069175E-02     4.733259879E-19
       20     4.554763060E-02    -2.062555142E-02     3.865000000E-03
! ... 22719 like lines cut
/wb,elem,start            !  set before creation of elements
/com,*********** Elements for Body 1 "input_geometry-FreeParts|____-____2" ***********
et,1,187
eblock,19,solid,,11485
(19i9)
        1        1        1        1        0        0        0        0       10        0        1      777     1676     2323     1985    10065    15736    10068    10067
    15734    17751
        1        1        1        1        0        0        0        0       10        0        2      615     3352     3516     3499     9074    21703     9078     9077
    21701    22347
        1        1        1        1        0        0        0        0       10        0        3      111     3271     3567      112     4608    21208     4613     4604
     4618     4623
        1        1        1        1        0        0        0        0       10        0        4       10     1095       11     1051     3839     3848     3830     3838
    11809     3846
        1        1        1        1        0        0        0        0       10        0        5     3418     3613     3426     3640    22081    22133    22078    22084
    22640    22136
        1        1        1        1        0        0        0        0       10        0        6      120      563     3305      121     4693     8751     4697     4691
     4701     4706
        1        1        1        1        0        0        0        0       10        0        7       99     1041      572     3251     4528     8800     4525     4529
    11756     8802
        1        1        1        1        0        0        0        0       10        0        8      593     3604      594     3382     8927     8933     8924     8925
    21886     8929
        1        1        1        1        0        0        0        0       10        0        9     1788     2483     1877     1876    16476    17066    16472    16471
    17060    17055
        1        1        1        1        0        0        0        0       10        0       10      124     3321     3298     3439     4732    21353     4731     4733
    21509    21355
! ... 22951 like lines cut
!Material Id = {EE477A52-EEAB-431B-95DF-1F581CAFD14C}
/wb,elem,end               !  done creating elements
/com,*********** Send User Defined Coordinate System(s) ***********
csys,0
toffst,273.15,  ! Temperature offset from absolute zero
/com,*********** Set Reference Temperature ***********
tref,22.
/wb,mat,start              !  starting to send materials
/com,*********** Send Materials ***********
Temperature = 'TEMP' ! Temperature
MP,DENS,1,7850,	! kg m^-3
MP,ALPX,1,1.2e-05,	! C^-1
MP,C,1,434,	! J kg^-1 C^-1
MP,KXX,1,60.5,	! W m^-1 C^-1
MP,RSVX,1,1.7e-07,	! kg m^3 A^-2 s^-3
MP,EX,1,200000000000,	! Pa
MP,NUXY,1,0.3,
MP,MURX,1,10000,
MP,UVID,1,ac7e8698-eccc-45d6-985b-95610e1f26ce
MP,UMID,1,59002a79-71c2-428e-906b-55d7dbee100e

/wb,mat,end                !  done sending materials
!************************* Model Summary ********************
!input_geometry-FreeParts|____-____2,	½á¹¹¸Ö,	matid,	1
!************************* End Model Summary ********************
! get the diagonal of the bounding box. Needed later for other things
*get,_xmin,node,,mnloc,x
*get,_ymin,node,,mnloc,y
*get,_zmin,node,,mnloc,z
*get,_xmax,node,,mxloc,x
*get,_ymax,node,,mxloc,y
*get,_zmax,node,,mxloc,z
_ASMDIAG=(_xmax-_xmin)*(_xmax-_xmin)+(_ymax-_ymin)*(_ymax-_ymin)+(_zmax-_zmin)*(_zmax-_zmin)
_ASMDIAG=SQRT(_ASMDIAG)
/wb,contact,start          !  starting to send contact
/wb,contact,end            !  done creating contacts
/golist
/wb,load,start             !  starting to send loads
/com,*********** Fixed Supports ***********
CMBLOCK,_FIXEDSU,NODE,      150
(8i10)
       104       105       106       107       108       109       183       363
       364       365       366       367       547       548       549       550
       551       552       625       805       806       807       808       809
       989       990       991       992      1001      1002      1003      1004
      1005      1006      1007      1008      1009      1010      1011      1012
      3645      3646      3647      3648      3649      3650      3651      3652
      3653      3654      4563      4565      4566      4567      4569      4570
      4571      4572      4574      4576      4577      4578      4580      4581
      4584      4585      4586      4589      4590      5253      5254      5255
      6959      6961      6962      6964      6965      6966      6967      6968
      6969      6973      6974      6975      6976      6977      6981      6982
      6984      6985      8653      8655      8656      8657      8659      8660
      8662      8663      8667      8668      8669      8672      8679      8680
      8682      8685      9143      9144      9145     10247     10249     10250
     10252     10253     10254     10257     10258     10259     10260     10261
     10262     10265     10267     11514     11518     11521     11567     11572
     11576     11577     11578     11581     11582     11584     11585     11586
     11589     11590     11596     11603     11604     11609     11610     11611
     11614     22704     22705     22706     22707     22708
cmsel,s,_FIXEDSU
d,all,all
nsel,all
/com,*********** Define Pressure Using Surface Effect Elements "__" ***********
et,2,154
eblock,10,,,3235
(15i9)
    18984        2        2        2        0      106      104      110      110     4563     4564      110     4575
    18985        2        2        2        0      108      107     3299     3299     4578     4582     3299     4587
    18986        2        2        2        0      109      108     3299     3299     4584     4587     3299     4591
    18987        2        2        2        0      105      109      131      131     4567     4588      131     4568
    18988        2        2        2        0      110      111     3300     3300     4594     4609     3300     4601
    18989        2        2        2        0      112      113     3301     3301     4614     4628     3301     4619
    18990        2        2        2        0      128      127     3298     3298     4753     4759     3298     4765
    18991        2        2        2        0      129       97      146      146     4506     4507      146     4768
    18992        2        2        2        0      130      129     3314     3314     4767     4772     3314     4777
    18993        2        2        2        0      127      126     3298     3298     4746     4750     3298     4759
    18994        2        2        2        0       14      128      125      125     3875     4737      125     3874
    18995        2        2        2        0      126     3315     3298     3298     4751    21352     3298     4750
    18996        2        2        2        0      111     3317     3300     3300     4610    21366     3300     4609
    18997        2        2        2        0      113     3318     3301     3301     4629    21373     3301     4628
    18998        2        2        2        0      114      115     3302     3302     4633     4649     3302     4638
    18999        2        2        2        0      115     3319     3302     3302     4650    21380     3302     4649
    19000        2        2        2        0      116      117     3303     3303     4655     4670     3303     4660
    19001        2        2        2        0      117     3320     3303     3303     4671    21388     3303     4670
    19002        2        2        2        0      118      119     3304     3304     4675     4689     3304     4680
    19003        2        2        2        0      119      120     3304     3304     4684     4696     3304     4689
! ... 3216 like lines cut
esel,s,type,,2
keyop,2,7,0                ! Use deformed area for application of load
esel,all
esel,all
/gst,on,on
fini
*get,_numnode,node,0,count
*get,_numelem,elem,0,count
*get, _MAXELEMNUM, elem, 0, NUM, MAX
*get, _MAXNODENUM, node, 0, NUM, MAX
*get, _MAXELEMTYPE, etyp, 0, NUM, MAX
*get, _MAXREALCONST, real, 0, NUM, MAX
/go
/wb,load,end               !  done creating loads
/com,--- Number of total nodes = %_numnode%
/com,--- Number of contact elements = 3235
/com,--- Number of spring elements = 0
/com,--- Number of bearing elements = 0
/com,--- Number of solid elements = 11485
/com,--- Number of condensed parts = 0
/com,--- Number of total elements = %_numelem%
*get,_wallbsol,active,,time,wall
/com,****************************************************************************
/com,*************************    SOLUTION       ********************************
/com,****************************************************************************
/solu
antype,0                   ! static analysis
_thickRatio=  0     ! Ratio of thick parts in the model
eqsl,sparse,,,,,1
cntr,print,1               ! print out contact info and also make no initial contact an error
dmpoption,emat,no             ! Don't combine emat file for DANSYS
dmpoption,esav,no             ! Don't combine esav file for DANSYS
nldiag,cont,iter           ! print out contact info each equilibrium iteration
rescontrol,,none                 ! Do not keep any restart files
/com,****************************************************
/com,******************* SOLVE FOR LS 1 OF 1 ****************
esel,s,type,,2
nsle
sf,all,pres,30000000.
nsel,all
esel,all
esel,all
/nopr
/gopr
nsub,1,1,1
time,1.
outres,erase
outres,all,none
outres,nsol,all,
outres,rsol,all
outres,eangl,all
outres,etmp,all
outres,veng,all
outres,strs,all,
outres,epel,all,
outres,eppl,all,
outres,cont,all,
! *********** WB SOLVE COMMAND ***********
! check interactive state
*get,ANSINTER_,active,,int
*if,ANSINTER_,ne,0,then
/eof
*endif
solve
/com *************** Write FE CONNECTORS ********* 
CEWRITE,file,ce,,INTE
/com,****************************************************
/com,*************** FINISHED SOLVE FOR LS 1 *************
*get,_wallasol,active,,time,wall
/nopr
*get,_numnode,node,0,count
*get,_numelem,elem,0,count
*get, _MAXELEMNUM, elem, 0, NUM, MAX
*get, _MAXNODENUM, node, 0, NUM, MAX,,,INTERNAL
*get, _MAXELEMTYPE, etyp, 0, NUM, MAX
*get, _MAXREALCONST, real, 0, NUM, MAX
/gopr
/post1
xmlo,ENCODING,ISO-8859-1
xmlo,parm
/xml,parm,xml
fini
/gopr
*get,_walldone,active,,time,wall
_preptime=(_wallbsol-_wallstrt)*3600
_solvtime=(_wallasol-_wallbsol)*3600
_posttime=(_walldone-_wallasol)*3600
_totaltim=(_walldone-_wallstrt)*3600
*get,_dlbratio,active,0,solu,dlbr
*get,_combtime,active,0,solu,comb
*get,_ssmode,active,0,solu,ssmm
*get,_ndofs,active,0,solu,ndof
*get,_sol_end_time,active,0,set,time
*if,_sol_end_time,eq,1.000000,then
/fclean				!clean distributed files
*endif
/com,--- Total number of nodes = %_numnode%
/com,--- Total number of elements = %_numelem%
/com,--- Element load balance ratio = %_dlbratio%
/com,--- Time to combine distributed files = %_combtime%
/com,--- Sparse memory mode = %_ssmode%
/com,--- Number of DOF = %_ndofs%
/wb,file,end               ! done with WB generated input
